*SPEF "IEEE 1481-1998"
*DESIGN "openMSP430"
*DATE "clock -format {%a %b %d %I:%M:%S %Y}"
*VENDOR "TAU 2015 Contest"
*PROGRAM "Benchmark Parasitic Generator"
*VERSION "0.0"
*DESIGN_FLOW "NETLIST_TYPE_VERILOG"
*DIVIDER /
*DELIMITER : 
*BUS DELIMITER 
*T_UNIT 1 PS 
*C_UNIT 1 FF 
*R_UNIT 1 KOHM 
*L_UNIT 1 UH 
